Circuit: * D:\school\Capstone\Product_Design\DCDC_CONVERTER\Buck\LM2596_LTspice_model\LM2596ADJ_In12V_Out5V3A_1222.asc

Direct Newton iteration failed to find .op point.  (Use ".option noopiter" to skip.)
Starting Gmin stepping
Gmin = 10
Gmin = 1.07374
Gmin = 0.115292
Gmin = 0.0123794
Gmin = 0.00132923
Gmin = 0.000142725
Gmin = 1.5325e-005
Gmin = 1.6455e-006
Gmin = 1.76685e-007
Gmin = 1.89714e-008
Gmin = 2.03704e-009
Gmin = 2.18725e-010
Gmin = 2.34854e-011
Gmin = 2.52173e-012
Gmin = 2.70769e-013
Gmin = 0
Gmin stepping succeeded in finding the operating point.

Heightened Def Con from 0.0010107 ++++++to 0.0010107
Heightened Def Con from 0.0010107 ++++++to 0.0010107
Heightened Def Con from 0.0010107 ++++++to 0.0010107
Heightened Def Con from 0.0010107 ++++++to 0.0010107
Heightened Def Con from 0.0010107 +++++to 0.0010107
Heightened Def Con from 0.0010107 +++++++to 0.0010107
Heightened Def Con from 0.0010107 to 0.0010107
Heightened Def Con from 0.00104592 ++++++to 0.00104592
Heightened Def Con from 0.00104592 ++++++to 0.00104592
Heightened Def Con from 0.00104592 ++++++to 0.00104592
Heightened Def Con from 0.00104592 ++++++to 0.00104592
Heightened Def Con from 0.00104592 ++++++to 0.00104592
Heightened Def Con from 0.00104592 ++++++to 0.00104592
Heightened Def Con from 0.00105424 +to 0.00105424
Heightened Def Con from 0.00105424 +to 0.00105424
Heightened Def Con from 0.00114768 +to 0.00114768
Heightened Def Con from 0.0011577 ++++++to 0.0011577
Heightened Def Con from 0.0011577 ++++++to 0.0011577
Heightened Def Con from 0.0011577 ++++++to 0.0011577
Heightened Def Con from 0.0011577 ++++++to 0.0011577
Heightened Def Con from 0.0011577 ++++++to 0.0011577
Heightened Def Con from 0.0011577 +++++to 0.0011577
Heightened Def Con from 0.00118661 ++++++to 0.00118661
Heightened Def Con from 0.00118661 +++++++to 0.00118661
Heightened Def Con from 0.00118661 +to 0.00118661
Heightened Def Con from 0.00132202 ++++++to 0.00132202
Heightened Def Con from 0.00132202 +++++++to 0.00132202
Heightened Def Con from 0.00145788 +to 0.00145788
Heightened Def Con from 0.00145788 to 0.00145788
Heightened Def Con from 0.00146093 to 0.00146093
Heightened Def Con from 0.00151401 +++++++++++++++++to 0.00151402
Heightened Def Con from 0.00151402 to 0.00151402
Heightened Def Con from 0.00151402 to 0.00151402
Heightened Def Con from 0.00151402 to 0.00151402
Heightened Def Con from 0.00276054 +to 0.00276054
Heightened Def Con from 0.00278055 ++to 0.00278055
Heightened Def Con from 0.00278055 to 0.00278056
Heightened Def Con from 0.00290769 +to 0.00290769
Heightened Def Con from 0.00290769 +to 0.00290769
Heightened Def Con from 0.00290769 +to 0.00290769
Heightened Def Con from 0.0029402 +++++to 0.0029402
Heightened Def Con from 0.00301378 +++++to 0.00301378
Heightened Def Con from 0.00309386 to 0.00309386
Heightened Def Con from 0.00310633 +++++to 0.00310633
Heightened Def Con from 0.00310703 +to 0.00310703
Heightened Def Con from 0.00310703 +to 0.00310703
Heightened Def Con from 0.00312016 +to 0.00312016
Heightened Def Con from 0.00315983 +to 0.00315983
Heightened Def Con from 0.00317309 +to 0.00317309
Heightened Def Con from 0.00317309 +to 0.00317309
Heightened Def Con from 0.00329144 +++++to 0.00329144
Heightened Def Con from 0.00329144 +++++to 0.00329144
Heightened Def Con from 0.00329144 ++++++to 0.00329144
Heightened Def Con from 0.00329144 +++++to 0.00329144
Heightened Def Con from 0.00331856 +to 0.00331856
Heightened Def Con from 0.00331856 +to 0.00331856
Heightened Def Con from 0.00331856 +to 0.00331856
Heightened Def Con from 0.00338474 +to 0.00338474
Heightened Def Con from 0.00338474 +to 0.00338474
Heightened Def Con from 0.00338474 +to 0.00338474
Heightened Def Con from 0.00339729 +++++to 0.00339729
Heightened Def Con from 0.00348061 +++++++++++++++++++to 0.00348061
Heightened Def Con from 0.00348061 to 0.00348061
Heightened Def Con from 0.00348061 to 0.00348061
Heightened Def Con from 0.00348061 +++++++++++++++++++to 0.00348062
Heightened Def Con from 0.00350599 +++++to 0.00350599
Heightened Def Con from 0.00351786 to 0.00351787
Heightened Def Con from 0.00356728 +++++to 0.00356728
Heightened Def Con from 0.00356728 +++++to 0.00356728
Heightened Def Con from 0.00362712 to 0.00362712
Heightened Def Con from 0.00364706 +++++to 0.00364706
Heightened Def Con from 0.00364706 +++++to 0.00364706
Heightened Def Con from 0.00364761 +++++++++++++++++++to 0.00364761
Heightened Def Con from 0.00370703 to 0.00370703
Heightened Def Con from 0.00370703 to 0.00370703
Heightened Def Con from 0.00374744 +++++++++++++++++++to 0.00374744
Heightened Def Con from 0.00378688 +++++to 0.00378689
Heightened Def Con from 0.00382729 +to 0.00382729
Heightened Def Con from 0.00383684 +++++to 0.00383684
Heightened Def Con from 0.00383741 to 0.00383741
Heightened Def Con from 0.00384725 to 0.00384725
Heightened Def Con from 0.00389451 to 0.00389451
Heightened Def Con from 0.00395326 +++++to 0.00395326
Heightened Def Con from 0.00397093 +++++++++++++++++++to 0.00397093
Heightened Def Con from 0.00399362 +++++++++++++++++++to 0.00399362

Date: Sun Apr 10 10:55:02 2022
Total elapsed time: 212.394 seconds.

tnom = 27
temp = 27
method = modified trap
totiter = 1598148
traniter = 1597706
tranpoints = 374159
accept = 275166
rejected = 99447
matrix size = 551
fillins = 852
solver = Normal
Thread vector: 37.8/23.6[6] 8.9/6.3[6] 6.1/3.9[6] 1.7/3.0[1]  2592/500
Matrix Compiler1: 68.13 KB object code size  23.1/8.7/[3.5]
Matrix Compiler2: 57.44 KB object code size  7.4/9.3/[3.5]

