Circuit: * D:\school\Capstone\Product Design\DCDC_CONVERTER\Buck\LM2596_LTspice_model\LM2596ADJ_In12V_Out5V3A_1222.asc

Direct Newton iteration failed to find .op point.  (Use ".option noopiter" to skip.)
Starting Gmin stepping
Gmin = 10
Gmin = 1.07374
Gmin = 0.115292
Gmin = 0.0123794
Gmin = 0.00132923
Gmin = 0.000142725
Gmin = 1.5325e-005
Gmin = 1.6455e-006
Gmin = 1.76685e-007
Gmin = 1.89714e-008
Gmin = 2.03704e-009
Gmin = 2.18725e-010
Gmin = 2.34854e-011
Gmin = 2.52173e-012
Gmin = 2.70769e-013
Gmin = 0
Gmin stepping succeeded in finding the operating point.

Heightened Def Con from 5.85634e-005 ++++++++++to 5.85644e-005
Heightened Def Con from 5.85644e-005 ++++++++to 5.85645e-005
Heightened Def Con from 5.85646e-005 to 5.85646e-005
Heightened Def Con from 0.00114316 to 0.00114316

Date: Thu Apr 07 13:57:23 2022
Total elapsed time: 14.375 seconds.

tnom = 27
temp = 27
method = modified trap
totiter = 133045
traniter = 132603
tranpoints = 37239
accept = 28345
rejected = 8916
matrix size = 551
fillins = 839
solver = Normal
Thread vector: 23.2/15.2[6] 11.8/7.9[6] 4.6/9.9[1] 1.6/3.5[1]  2592/500
Matrix Compiler1:    3809 opcodes  18.5/[7.6]/11.6
Matrix Compiler2: 57.18 KB object code size  6.7/8.4/[3.3]

